<routes>
            <vType accel="1.0" decel="4.5" id="standard_car" length="5.0" minGap="2.5" maxSpeed="25" sigma="0.5" />

            <route id="W_E" edges="W2TL TL2E"/>
            <route id="W_S" edges="W2TL TL2S"/>
            <route id="N_W" edges="N2TL TL2W"/>
            <route id="N_S" edges="N2TL TL2S"/>
            <route id="E_W" edges="E2TL TL2W"/>
            <route id="E_N" edges="E2TL TL2N"/>
            <route id="S_N" edges="S2TL TL2N"/>
            <route id="S_E" edges="S2TL TL2E"/>
    <vehicle id="S_E_0" type="standard_car" route="S_E" depart="0" departLane="random" departSpeed="10" />
    <vehicle id="S_E_1" type="standard_car" route="S_E" depart="1" departLane="random" departSpeed="10" />
    <vehicle id="W_E_2" type="standard_car" route="W_E" depart="2" departLane="random" departSpeed="10" />
    <vehicle id="E_N_5" type="standard_car" route="E_N" depart="5" departLane="random" departSpeed="10" />
    <vehicle id="N_S_8" type="standard_car" route="N_S" depart="8" departLane="random" departSpeed="10" />
    <vehicle id="N_S_11" type="standard_car" route="N_S" depart="11" departLane="random" departSpeed="10" />
    <vehicle id="E_W_11" type="standard_car" route="E_W" depart="11" departLane="random" departSpeed="10" />
    <vehicle id="N_S_12" type="standard_car" route="N_S" depart="12" departLane="random" departSpeed="10" />
    <vehicle id="N_S_18" type="standard_car" route="N_S" depart="18" departLane="random" departSpeed="10" />
    <vehicle id="E_W_22" type="standard_car" route="E_W" depart="22" departLane="random" departSpeed="10" />
    <vehicle id="S_N_24" type="standard_car" route="S_N" depart="24" departLane="random" departSpeed="10" />
    <vehicle id="N_W_27" type="standard_car" route="N_W" depart="27" departLane="random" departSpeed="10" />
    <vehicle id="E_W_27" type="standard_car" route="E_W" depart="27" departLane="random" departSpeed="10" />
    <vehicle id="N_W_28" type="standard_car" route="N_W" depart="28" departLane="random" departSpeed="10" />
    <vehicle id="N_S_38" type="standard_car" route="N_S" depart="38" departLane="random" departSpeed="10" />
    <vehicle id="S_N_42" type="standard_car" route="S_N" depart="42" departLane="random" departSpeed="10" />
    <vehicle id="E_N_59" type="standard_car" route="E_N" depart="59" departLane="random" departSpeed="10" />
    <vehicle id="W_E_70" type="standard_car" route="W_E" depart="70" departLane="random" departSpeed="10" />
    <vehicle id="W_E_82" type="standard_car" route="W_E" depart="82" departLane="random" departSpeed="10" />
    <vehicle id="S_N_95" type="standard_car" route="S_N" depart="95" departLane="random" departSpeed="10" />
    <vehicle id="W_S_110" type="standard_car" route="W_S" depart="110" departLane="random" departSpeed="10" />
    <vehicle id="E_W_111" type="standard_car" route="E_W" depart="111" departLane="random" departSpeed="10" />
    <vehicle id="S_N_116" type="standard_car" route="S_N" depart="116" departLane="random" departSpeed="10" />
    <vehicle id="E_W_123" type="standard_car" route="E_W" depart="123" departLane="random" departSpeed="10" />
    <vehicle id="S_N_123" type="standard_car" route="S_N" depart="123" departLane="random" departSpeed="10" />
    <vehicle id="E_W_126" type="standard_car" route="E_W" depart="126" departLane="random" departSpeed="10" />
    <vehicle id="S_N_127" type="standard_car" route="S_N" depart="127" departLane="random" departSpeed="10" />
    <vehicle id="N_S_128" type="standard_car" route="N_S" depart="128" departLane="random" departSpeed="10" />
    <vehicle id="S_N_131" type="standard_car" route="S_N" depart="131" departLane="random" departSpeed="10" />
    <vehicle id="N_W_133" type="standard_car" route="N_W" depart="133" departLane="random" departSpeed="10" />
    <vehicle id="S_N_136" type="standard_car" route="S_N" depart="136" departLane="random" departSpeed="10" />
    <vehicle id="W_E_139" type="standard_car" route="W_E" depart="139" departLane="random" departSpeed="10" />
    <vehicle id="E_N_141" type="standard_car" route="E_N" depart="141" departLane="random" departSpeed="10" />
    <vehicle id="N_S_143" type="standard_car" route="N_S" depart="143" departLane="random" departSpeed="10" />
    <vehicle id="S_N_145" type="standard_car" route="S_N" depart="145" departLane="random" departSpeed="10" />
    <vehicle id="N_W_148" type="standard_car" route="N_W" depart="148" departLane="random" departSpeed="10" />
    <vehicle id="N_S_168" type="standard_car" route="N_S" depart="168" departLane="random" departSpeed="10" />
    <vehicle id="N_S_170" type="standard_car" route="N_S" depart="170" departLane="random" departSpeed="10" />
    <vehicle id="N_S_174" type="standard_car" route="N_S" depart="174" departLane="random" departSpeed="10" />
    <vehicle id="N_S_180" type="standard_car" route="N_S" depart="180" departLane="random" departSpeed="10" />
    <vehicle id="S_N_180" type="standard_car" route="S_N" depart="180" departLane="random" departSpeed="10" />
    <vehicle id="E_W_185" type="standard_car" route="E_W" depart="185" departLane="random" departSpeed="10" />
    <vehicle id="S_N_185" type="standard_car" route="S_N" depart="185" departLane="random" departSpeed="10" />
    <vehicle id="S_N_189" type="standard_car" route="S_N" depart="189" departLane="random" departSpeed="10" />
    <vehicle id="S_N_195" type="standard_car" route="S_N" depart="195" departLane="random" departSpeed="10" />
    <vehicle id="N_S_201" type="standard_car" route="N_S" depart="201" departLane="random" departSpeed="10" />
    <vehicle id="S_N_203" type="standard_car" route="S_N" depart="203" departLane="random" departSpeed="10" />
    <vehicle id="S_N_207" type="standard_car" route="S_N" depart="207" departLane="random" departSpeed="10" />
    <vehicle id="E_N_213" type="standard_car" route="E_N" depart="213" departLane="random" departSpeed="10" />
    <vehicle id="S_N_213" type="standard_car" route="S_N" depart="213" departLane="random" departSpeed="10" />
    <vehicle id="S_N_221" type="standard_car" route="S_N" depart="221" departLane="random" departSpeed="10" />
    <vehicle id="E_W_238" type="standard_car" route="E_W" depart="238" departLane="random" departSpeed="10" />
    <vehicle id="N_W_240" type="standard_car" route="N_W" depart="240" departLane="random" departSpeed="10" />
    <vehicle id="S_N_244" type="standard_car" route="S_N" depart="244" departLane="random" departSpeed="10" />
    <vehicle id="E_W_252" type="standard_car" route="E_W" depart="252" departLane="random" departSpeed="10" />
    <vehicle id="W_E_253" type="standard_car" route="W_E" depart="253" departLane="random" departSpeed="10" />
    <vehicle id="N_S_257" type="standard_car" route="N_S" depart="257" departLane="random" departSpeed="10" />
    <vehicle id="S_E_260" type="standard_car" route="S_E" depart="260" departLane="random" departSpeed="10" />
    <vehicle id="E_W_264" type="standard_car" route="E_W" depart="264" departLane="random" departSpeed="10" />
    <vehicle id="W_E_265" type="standard_car" route="W_E" depart="265" departLane="random" departSpeed="10" />
    <vehicle id="S_N_270" type="standard_car" route="S_N" depart="270" departLane="random" departSpeed="10" />
    <vehicle id="W_E_271" type="standard_car" route="W_E" depart="271" departLane="random" departSpeed="10" />
    <vehicle id="N_W_273" type="standard_car" route="N_W" depart="273" departLane="random" departSpeed="10" />
    <vehicle id="W_E_275" type="standard_car" route="W_E" depart="275" departLane="random" departSpeed="10" />
    <vehicle id="E_W_277" type="standard_car" route="E_W" depart="277" departLane="random" departSpeed="10" />
    <vehicle id="E_N_282" type="standard_car" route="E_N" depart="282" departLane="random" departSpeed="10" />
    <vehicle id="S_N_288" type="standard_car" route="S_N" depart="288" departLane="random" departSpeed="10" />
    <vehicle id="W_S_298" type="standard_car" route="W_S" depart="298" departLane="random" departSpeed="10" />
    <vehicle id="E_W_309" type="standard_car" route="E_W" depart="309" departLane="random" departSpeed="10" />
    <vehicle id="W_E_310" type="standard_car" route="W_E" depart="310" departLane="random" departSpeed="10" />
    <vehicle id="S_N_311" type="standard_car" route="S_N" depart="311" departLane="random" departSpeed="10" />
    <vehicle id="N_S_316" type="standard_car" route="N_S" depart="316" departLane="random" departSpeed="10" />
    <vehicle id="S_N_324" type="standard_car" route="S_N" depart="324" departLane="random" departSpeed="10" />
    <vehicle id="S_N_325" type="standard_car" route="S_N" depart="325" departLane="random" departSpeed="10" />
    <vehicle id="N_S_331" type="standard_car" route="N_S" depart="331" departLane="random" departSpeed="10" />
    <vehicle id="W_S_332" type="standard_car" route="W_S" depart="332" departLane="random" departSpeed="10" />
    <vehicle id="W_E_333" type="standard_car" route="W_E" depart="333" departLane="random" departSpeed="10" />
    <vehicle id="N_S_333" type="standard_car" route="N_S" depart="333" departLane="random" departSpeed="10" />
    <vehicle id="E_W_335" type="standard_car" route="E_W" depart="335" departLane="random" departSpeed="10" />
    <vehicle id="W_S_338" type="standard_car" route="W_S" depart="338" departLane="random" departSpeed="10" />
    <vehicle id="W_E_349" type="standard_car" route="W_E" depart="349" departLane="random" departSpeed="10" />
    <vehicle id="E_W_350" type="standard_car" route="E_W" depart="350" departLane="random" departSpeed="10" />
    <vehicle id="E_W_364" type="standard_car" route="E_W" depart="364" departLane="random" departSpeed="10" />
    <vehicle id="S_N_365" type="standard_car" route="S_N" depart="365" departLane="random" departSpeed="10" />
    <vehicle id="S_N_366" type="standard_car" route="S_N" depart="366" departLane="random" departSpeed="10" />
    <vehicle id="E_W_369" type="standard_car" route="E_W" depart="369" departLane="random" departSpeed="10" />
    <vehicle id="E_W_378" type="standard_car" route="E_W" depart="378" departLane="random" departSpeed="10" />
    <vehicle id="W_S_379" type="standard_car" route="W_S" depart="379" departLane="random" departSpeed="10" />
    <vehicle id="S_N_382" type="standard_car" route="S_N" depart="382" departLane="random" departSpeed="10" />
    <vehicle id="N_S_383" type="standard_car" route="N_S" depart="383" departLane="random" departSpeed="10" />
    <vehicle id="S_N_383" type="standard_car" route="S_N" depart="383" departLane="random" departSpeed="10" />
    <vehicle id="W_E_384" type="standard_car" route="W_E" depart="384" departLane="random" departSpeed="10" />
    <vehicle id="S_N_397" type="standard_car" route="S_N" depart="397" departLane="random" departSpeed="10" />
    <vehicle id="W_E_399" type="standard_car" route="W_E" depart="399" departLane="random" departSpeed="10" />
    <vehicle id="S_N_433" type="standard_car" route="S_N" depart="433" departLane="random" departSpeed="10" />
    <vehicle id="W_S_435" type="standard_car" route="W_S" depart="435" departLane="random" departSpeed="10" />
    <vehicle id="N_S_446" type="standard_car" route="N_S" depart="446" departLane="random" departSpeed="10" />
    <vehicle id="W_S_458" type="standard_car" route="W_S" depart="458" departLane="random" departSpeed="10" />
    <vehicle id="S_N_459" type="standard_car" route="S_N" depart="459" departLane="random" departSpeed="10" />
    <vehicle id="S_E_460" type="standard_car" route="S_E" depart="460" departLane="random" departSpeed="10" />
    <vehicle id="N_S_467" type="standard_car" route="N_S" depart="467" departLane="random" departSpeed="10" />
    <vehicle id="W_S_475" type="standard_car" route="W_S" depart="475" departLane="random" departSpeed="10" />
    <vehicle id="S_E_486" type="standard_car" route="S_E" depart="486" departLane="random" departSpeed="10" />
    <vehicle id="W_E_491" type="standard_car" route="W_E" depart="491" departLane="random" departSpeed="10" />
    <vehicle id="E_W_494" type="standard_car" route="E_W" depart="494" departLane="random" departSpeed="10" />
    <vehicle id="E_W_495" type="standard_car" route="E_W" depart="495" departLane="random" departSpeed="10" />
    <vehicle id="E_W_496" type="standard_car" route="E_W" depart="496" departLane="random" departSpeed="10" />
    <vehicle id="E_W_504" type="standard_car" route="E_W" depart="504" departLane="random" departSpeed="10" />
    <vehicle id="S_E_509" type="standard_car" route="S_E" depart="509" departLane="random" departSpeed="10" />
    <vehicle id="N_S_514" type="standard_car" route="N_S" depart="514" departLane="random" departSpeed="10" />
    <vehicle id="S_E_522" type="standard_car" route="S_E" depart="522" departLane="random" departSpeed="10" />
    <vehicle id="N_S_524" type="standard_car" route="N_S" depart="524" departLane="random" departSpeed="10" />
    <vehicle id="N_W_535" type="standard_car" route="N_W" depart="535" departLane="random" departSpeed="10" />
    <vehicle id="N_S_536" type="standard_car" route="N_S" depart="536" departLane="random" departSpeed="10" />
    <vehicle id="E_W_536" type="standard_car" route="E_W" depart="536" departLane="random" departSpeed="10" />
    <vehicle id="S_N_540" type="standard_car" route="S_N" depart="540" departLane="random" departSpeed="10" />
    <vehicle id="S_E_545" type="standard_car" route="S_E" depart="545" departLane="random" departSpeed="10" />
    <vehicle id="E_N_552" type="standard_car" route="E_N" depart="552" departLane="random" departSpeed="10" />
    <vehicle id="S_N_552" type="standard_car" route="S_N" depart="552" departLane="random" departSpeed="10" />
    <vehicle id="W_E_554" type="standard_car" route="W_E" depart="554" departLane="random" departSpeed="10" />
    <vehicle id="N_S_557" type="standard_car" route="N_S" depart="557" departLane="random" departSpeed="10" />
    <vehicle id="S_N_563" type="standard_car" route="S_N" depart="563" departLane="random" departSpeed="10" />
    <vehicle id="E_W_565" type="standard_car" route="E_W" depart="565" departLane="random" departSpeed="10" />
    <vehicle id="N_S_572" type="standard_car" route="N_S" depart="572" departLane="random" departSpeed="10" />
    <vehicle id="E_W_576" type="standard_car" route="E_W" depart="576" departLane="random" departSpeed="10" />
    <vehicle id="S_N_576" type="standard_car" route="S_N" depart="576" departLane="random" departSpeed="10" />
    <vehicle id="E_W_582" type="standard_car" route="E_W" depart="582" departLane="random" departSpeed="10" />
    <vehicle id="S_N_589" type="standard_car" route="S_N" depart="589" departLane="random" departSpeed="10" />
    <vehicle id="N_W_592" type="standard_car" route="N_W" depart="592" departLane="random" departSpeed="10" />
    <vehicle id="N_S_613" type="standard_car" route="N_S" depart="613" departLane="random" departSpeed="10" />
    <vehicle id="E_N_616" type="standard_car" route="E_N" depart="616" departLane="random" departSpeed="10" />
    <vehicle id="N_S_617" type="standard_car" route="N_S" depart="617" departLane="random" departSpeed="10" />
    <vehicle id="N_W_625" type="standard_car" route="N_W" depart="625" departLane="random" departSpeed="10" />
    <vehicle id="S_N_625" type="standard_car" route="S_N" depart="625" departLane="random" departSpeed="10" />
    <vehicle id="W_E_630" type="standard_car" route="W_E" depart="630" departLane="random" departSpeed="10" />
    <vehicle id="N_S_645" type="standard_car" route="N_S" depart="645" departLane="random" departSpeed="10" />
    <vehicle id="N_S_646" type="standard_car" route="N_S" depart="646" departLane="random" departSpeed="10" />
    <vehicle id="N_S_650" type="standard_car" route="N_S" depart="650" departLane="random" departSpeed="10" />
    <vehicle id="S_N_656" type="standard_car" route="S_N" depart="656" departLane="random" departSpeed="10" />
    <vehicle id="S_N_657" type="standard_car" route="S_N" depart="657" departLane="random" departSpeed="10" />
    <vehicle id="E_W_658" type="standard_car" route="E_W" depart="658" departLane="random" departSpeed="10" />
    <vehicle id="W_S_659" type="standard_car" route="W_S" depart="659" departLane="random" departSpeed="10" />
    <vehicle id="W_E_663" type="standard_car" route="W_E" depart="663" departLane="random" departSpeed="10" />
    <vehicle id="E_W_664" type="standard_car" route="E_W" depart="664" departLane="random" departSpeed="10" />
    <vehicle id="E_W_669" type="standard_car" route="E_W" depart="669" departLane="random" departSpeed="10" />
    <vehicle id="W_E_679" type="standard_car" route="W_E" depart="679" departLane="random" departSpeed="10" />
    <vehicle id="N_S_681" type="standard_car" route="N_S" depart="681" departLane="random" departSpeed="10" />
    <vehicle id="S_N_691" type="standard_car" route="S_N" depart="691" departLane="random" departSpeed="10" />
    <vehicle id="S_N_698" type="standard_car" route="S_N" depart="698" departLane="random" departSpeed="10" />
    <vehicle id="W_S_709" type="standard_car" route="W_S" depart="709" departLane="random" departSpeed="10" />
    <vehicle id="W_E_727" type="standard_car" route="W_E" depart="727" departLane="random" departSpeed="10" />
    <vehicle id="S_N_727" type="standard_car" route="S_N" depart="727" departLane="random" departSpeed="10" />
    <vehicle id="W_E_731" type="standard_car" route="W_E" depart="731" departLane="random" departSpeed="10" />
    <vehicle id="S_E_734" type="standard_car" route="S_E" depart="734" departLane="random" departSpeed="10" />
    <vehicle id="S_N_736" type="standard_car" route="S_N" depart="736" departLane="random" departSpeed="10" />
    <vehicle id="S_E_754" type="standard_car" route="S_E" depart="754" departLane="random" departSpeed="10" />
    <vehicle id="W_S_757" type="standard_car" route="W_S" depart="757" departLane="random" departSpeed="10" />
    <vehicle id="N_W_757" type="standard_car" route="N_W" depart="757" departLane="random" departSpeed="10" />
    <vehicle id="W_S_762" type="standard_car" route="W_S" depart="762" departLane="random" departSpeed="10" />
    <vehicle id="E_N_764" type="standard_car" route="E_N" depart="764" departLane="random" departSpeed="10" />
    <vehicle id="N_S_767" type="standard_car" route="N_S" depart="767" departLane="random" departSpeed="10" />
    <vehicle id="W_S_768" type="standard_car" route="W_S" depart="768" departLane="random" departSpeed="10" />
    <vehicle id="E_N_769" type="standard_car" route="E_N" depart="769" departLane="random" departSpeed="10" />
    <vehicle id="W_S_774" type="standard_car" route="W_S" depart="774" departLane="random" departSpeed="10" />
    <vehicle id="E_N_774" type="standard_car" route="E_N" depart="774" departLane="random" departSpeed="10" />
    <vehicle id="E_W_777" type="standard_car" route="E_W" depart="777" departLane="random" departSpeed="10" />
    <vehicle id="W_S_778" type="standard_car" route="W_S" depart="778" departLane="random" departSpeed="10" />
    <vehicle id="W_S_784" type="standard_car" route="W_S" depart="784" departLane="random" departSpeed="10" />
    <vehicle id="E_N_788" type="standard_car" route="E_N" depart="788" departLane="random" departSpeed="10" />
    <vehicle id="W_E_789" type="standard_car" route="W_E" depart="789" departLane="random" departSpeed="10" />
    <vehicle id="N_S_791" type="standard_car" route="N_S" depart="791" departLane="random" departSpeed="10" />
    <vehicle id="N_S_792" type="standard_car" route="N_S" depart="792" departLane="random" departSpeed="10" />
    <vehicle id="N_W_828" type="standard_car" route="N_W" depart="828" departLane="random" departSpeed="10" />
    <vehicle id="E_W_828" type="standard_car" route="E_W" depart="828" departLane="random" departSpeed="10" />
    <vehicle id="S_E_831" type="standard_car" route="S_E" depart="831" departLane="random" departSpeed="10" />
    <vehicle id="S_N_840" type="standard_car" route="S_N" depart="840" departLane="random" departSpeed="10" />
    <vehicle id="N_S_843" type="standard_car" route="N_S" depart="843" departLane="random" departSpeed="10" />
    <vehicle id="N_S_851" type="standard_car" route="N_S" depart="851" departLane="random" departSpeed="10" />
    <vehicle id="E_W_856" type="standard_car" route="E_W" depart="856" departLane="random" departSpeed="10" />
    <vehicle id="S_N_859" type="standard_car" route="S_N" depart="859" departLane="random" departSpeed="10" />
    <vehicle id="E_W_863" type="standard_car" route="E_W" depart="863" departLane="random" departSpeed="10" />
    <vehicle id="E_N_866" type="standard_car" route="E_N" depart="866" departLane="random" departSpeed="10" />
    <vehicle id="S_N_867" type="standard_car" route="S_N" depart="867" departLane="random" departSpeed="10" />
    <vehicle id="W_E_869" type="standard_car" route="W_E" depart="869" departLane="random" departSpeed="10" />
    <vehicle id="W_S_882" type="standard_car" route="W_S" depart="882" departLane="random" departSpeed="10" />
    <vehicle id="W_E_886" type="standard_car" route="W_E" depart="886" departLane="random" departSpeed="10" />
    <vehicle id="N_S_890" type="standard_car" route="N_S" depart="890" departLane="random" departSpeed="10" />
    <vehicle id="W_E_892" type="standard_car" route="W_E" depart="892" departLane="random" departSpeed="10" />
    <vehicle id="N_W_892" type="standard_car" route="N_W" depart="892" departLane="random" departSpeed="10" />
    <vehicle id="S_N_903" type="standard_car" route="S_N" depart="903" departLane="random" departSpeed="10" />
    <vehicle id="W_E_920" type="standard_car" route="W_E" depart="920" departLane="random" departSpeed="10" />
    <vehicle id="N_S_922" type="standard_car" route="N_S" depart="922" departLane="random" departSpeed="10" />
    <vehicle id="E_N_924" type="standard_car" route="E_N" depart="924" departLane="random" departSpeed="10" />
    <vehicle id="W_E_927" type="standard_car" route="W_E" depart="927" departLane="random" departSpeed="10" />
    <vehicle id="W_E_928" type="standard_car" route="W_E" depart="928" departLane="random" departSpeed="10" />
    <vehicle id="N_S_929" type="standard_car" route="N_S" depart="929" departLane="random" departSpeed="10" />
    <vehicle id="W_S_943" type="standard_car" route="W_S" depart="943" departLane="random" departSpeed="10" />
    <vehicle id="S_N_954" type="standard_car" route="S_N" depart="954" departLane="random" departSpeed="10" />
    <vehicle id="W_E_965" type="standard_car" route="W_E" depart="965" departLane="random" departSpeed="10" />
    <vehicle id="W_E_967" type="standard_car" route="W_E" depart="967" departLane="random" departSpeed="10" />
    <vehicle id="S_N_970" type="standard_car" route="S_N" depart="970" departLane="random" departSpeed="10" />
    <vehicle id="E_W_972" type="standard_car" route="E_W" depart="972" departLane="random" departSpeed="10" />
    <vehicle id="W_E_978" type="standard_car" route="W_E" depart="978" departLane="random" departSpeed="10" />
    <vehicle id="W_E_984" type="standard_car" route="W_E" depart="984" departLane="random" departSpeed="10" />
    <vehicle id="E_W_988" type="standard_car" route="E_W" depart="988" departLane="random" departSpeed="10" />
    <vehicle id="S_E_988" type="standard_car" route="S_E" depart="988" departLane="random" departSpeed="10" />
    <vehicle id="W_S_989" type="standard_car" route="W_S" depart="989" departLane="random" departSpeed="10" />
    <vehicle id="N_S_990" type="standard_car" route="N_S" depart="990" departLane="random" departSpeed="10" />
    <vehicle id="S_N_994" type="standard_car" route="S_N" depart="994" departLane="random" departSpeed="10" />
    <vehicle id="W_E_1018" type="standard_car" route="W_E" depart="1018" departLane="random" departSpeed="10" />
    <vehicle id="W_E_1019" type="standard_car" route="W_E" depart="1019" departLane="random" departSpeed="10" />
    <vehicle id="N_W_1022" type="standard_car" route="N_W" depart="1022" departLane="random" departSpeed="10" />
    <vehicle id="E_W_1029" type="standard_car" route="E_W" depart="1029" departLane="random" departSpeed="10" />
    <vehicle id="E_W_1031" type="standard_car" route="E_W" depart="1031" departLane="random" departSpeed="10" />
    <vehicle id="S_E_1037" type="standard_car" route="S_E" depart="1037" departLane="random" departSpeed="10" />
    <vehicle id="W_E_1040" type="standard_car" route="W_E" depart="1040" departLane="random" departSpeed="10" />
    <vehicle id="S_N_1060" type="standard_car" route="S_N" depart="1060" departLane="random" departSpeed="10" />
    <vehicle id="N_W_1065" type="standard_car" route="N_W" depart="1065" departLane="random" departSpeed="10" />
    <vehicle id="E_W_1065" type="standard_car" route="E_W" depart="1065" departLane="random" departSpeed="10" />
    <vehicle id="S_E_1069" type="standard_car" route="S_E" depart="1069" departLane="random" departSpeed="10" />
    <vehicle id="W_E_1071" type="standard_car" route="W_E" depart="1071" departLane="random" departSpeed="10" />
    <vehicle id="N_S_1080" type="standard_car" route="N_S" depart="1080" departLane="random" departSpeed="10" />
    <vehicle id="E_W_1084" type="standard_car" route="E_W" depart="1084" departLane="random" departSpeed="10" />
    <vehicle id="W_S_1085" type="standard_car" route="W_S" depart="1085" departLane="random" departSpeed="10" />
    <vehicle id="S_N_1089" type="standard_car" route="S_N" depart="1089" departLane="random" departSpeed="10" />
    <vehicle id="N_S_1091" type="standard_car" route="N_S" depart="1091" departLane="random" departSpeed="10" />
    <vehicle id="E_W_1097" type="standard_car" route="E_W" depart="1097" departLane="random" departSpeed="10" />
    <vehicle id="N_W_1107" type="standard_car" route="N_W" depart="1107" departLane="random" departSpeed="10" />
    <vehicle id="E_W_1113" type="standard_car" route="E_W" depart="1113" departLane="random" departSpeed="10" />
    <vehicle id="W_S_1120" type="standard_car" route="W_S" depart="1120" departLane="random" departSpeed="10" />
    <vehicle id="W_E_1122" type="standard_car" route="W_E" depart="1122" departLane="random" departSpeed="10" />
    <vehicle id="W_E_1127" type="standard_car" route="W_E" depart="1127" departLane="random" departSpeed="10" />
    <vehicle id="S_N_1127" type="standard_car" route="S_N" depart="1127" departLane="random" departSpeed="10" />
    <vehicle id="N_W_1137" type="standard_car" route="N_W" depart="1137" departLane="random" departSpeed="10" />
    <vehicle id="E_W_1137" type="standard_car" route="E_W" depart="1137" departLane="random" departSpeed="10" />
    <vehicle id="S_N_1146" type="standard_car" route="S_N" depart="1146" departLane="random" departSpeed="10" />
    <vehicle id="W_E_1151" type="standard_car" route="W_E" depart="1151" departLane="random" departSpeed="10" />
    <vehicle id="S_N_1151" type="standard_car" route="S_N" depart="1151" departLane="random" departSpeed="10" />
    <vehicle id="N_S_1165" type="standard_car" route="N_S" depart="1165" departLane="random" departSpeed="10" />
    <vehicle id="W_S_1167" type="standard_car" route="W_S" depart="1167" departLane="random" departSpeed="10" />
    <vehicle id="S_N_1172" type="standard_car" route="S_N" depart="1172" departLane="random" departSpeed="10" />
    <vehicle id="N_W_1175" type="standard_car" route="N_W" depart="1175" departLane="random" departSpeed="10" />
    <vehicle id="N_S_1190" type="standard_car" route="N_S" depart="1190" departLane="random" departSpeed="10" />
    <vehicle id="W_E_1194" type="standard_car" route="W_E" depart="1194" departLane="random" departSpeed="10" />
    <vehicle id="W_E_1196" type="standard_car" route="W_E" depart="1196" departLane="random" departSpeed="10" />
    <vehicle id="E_W_1200" type="standard_car" route="E_W" depart="1200" departLane="random" departSpeed="10" />
    <vehicle id="S_N_1200" type="standard_car" route="S_N" depart="1200" departLane="random" departSpeed="10" />
    <vehicle id="W_S_1201" type="standard_car" route="W_S" depart="1201" departLane="random" departSpeed="10" />
    <vehicle id="N_W_1205" type="standard_car" route="N_W" depart="1205" departLane="random" departSpeed="10" />
    <vehicle id="S_N_1210" type="standard_car" route="S_N" depart="1210" departLane="random" departSpeed="10" />
    <vehicle id="N_S_1212" type="standard_car" route="N_S" depart="1212" departLane="random" departSpeed="10" />
    <vehicle id="W_E_1213" type="standard_car" route="W_E" depart="1213" departLane="random" departSpeed="10" />
    <vehicle id="S_E_1218" type="standard_car" route="S_E" depart="1218" departLane="random" departSpeed="10" />
    <vehicle id="N_S_1220" type="standard_car" route="N_S" depart="1220" departLane="random" departSpeed="10" />
    <vehicle id="S_N_1222" type="standard_car" route="S_N" depart="1222" departLane="random" departSpeed="10" />
    <vehicle id="N_S_1227" type="standard_car" route="N_S" depart="1227" departLane="random" departSpeed="10" />
    <vehicle id="W_S_1235" type="standard_car" route="W_S" depart="1235" departLane="random" departSpeed="10" />
    <vehicle id="E_W_1237" type="standard_car" route="E_W" depart="1237" departLane="random" departSpeed="10" />
    <vehicle id="S_N_1240" type="standard_car" route="S_N" depart="1240" departLane="random" departSpeed="10" />
    <vehicle id="N_W_1246" type="standard_car" route="N_W" depart="1246" departLane="random" departSpeed="10" />
    <vehicle id="E_W_1273" type="standard_car" route="E_W" depart="1273" departLane="random" departSpeed="10" />
    <vehicle id="W_E_1276" type="standard_car" route="W_E" depart="1276" departLane="random" departSpeed="10" />